<?xml version="1.0" encoding="UTF-8"?>

<!-- generated on 2025-06-07 19:01:58.831315 by randomTrips.py v1_21_0+0000-d7b3b481c43
<configuration>
    <net-file value="map.net.xml"/>
    <output-trip-file value="truck.trips.xml"/>
    <vtype-output value="truck"/>
    <vehicle-class value="truck"/>
    <validate value="True"/>
</configuration>
-->

<!-- generated on 2025-06-07 19:01:58 by Eclipse SUMO duarouter Version 1.21.0
<duarouterConfiguration xmlns:xsi="http://www.w3.org/2001/XMLSchema-instance" xsi:noNamespaceSchemaLocation="http://sumo.dlr.de/xsd/duarouterConfiguration.xsd">

    <input>
        <net-file value="map.net.xml"/>
        <additional-files value="truck"/>
        <route-files value="truck.trips.xml"/>
    </input>

    <output>
        <output-file value="truck.trips.xml.tmp"/>
        <vtype-output value="truck"/>
        <alternatives-output value="NUL"/>
        <write-trips value="true"/>
    </output>

    <time>
        <begin value="0"/>
        <end value="3600"/>
    </time>

    <report>
        <no-warnings value="true"/>
        <ignore-errors value="true"/>
        <no-step-log value="true"/>
    </report>

</duarouterConfiguration>
-->

<routes xmlns:xsi="http://www.w3.org/2001/XMLSchema-instance" xsi:noNamespaceSchemaLocation="http://sumo.dlr.de/xsd/routes_file.xsd">
    <trip id="0" type="truck" depart="0.00" from="edge341" to="edge1043"/>
    <trip id="1" type="truck" depart="1.00" from="edge1507" to="edge1411"/>
    <trip id="2" type="truck" depart="2.00" from="edge516" to="edge404"/>
    <trip id="3" type="truck" depart="3.00" from="edge802" to="edge1157"/>
    <trip id="4" type="truck" depart="4.00" from="edge1784" to="edge1052"/>
    <trip id="5" type="truck" depart="5.00" from="edge1402" to="edge1930"/>
    <trip id="6" type="truck" depart="6.00" from="edge1046" to="edge1366"/>
    <trip id="7" type="truck" depart="7.00" from="edge36" to="edge2004"/>
    <trip id="8" type="truck" depart="8.00" from="edge1406" to="edge241"/>
    <trip id="9" type="truck" depart="9.00" from="edge650" to="edge101"/>
    <trip id="10" type="truck" depart="10.00" from="edge643" to="edge445"/>
    <trip id="11" type="truck" depart="11.00" from="edge163" to="edge1283"/>
    <trip id="13" type="truck" depart="13.00" from="edge1169" to="edge1174"/>
    <trip id="14" type="truck" depart="14.00" from="edge720" to="edge269"/>
    <trip id="15" type="truck" depart="15.00" from="edge646" to="edge501"/>
    <trip id="16" type="truck" depart="16.00" from="edge1997" to="edge95"/>
    <trip id="17" type="truck" depart="17.00" from="edge1701" to="edge2018"/>
    <trip id="18" type="truck" depart="18.00" from="edge689" to="edge296"/>
    <trip id="19" type="truck" depart="19.00" from="edge747" to="edge220"/>
    <trip id="20" type="truck" depart="20.00" from="edge459" to="edge1082"/>
    <trip id="21" type="truck" depart="21.00" from="edge142" to="edge1530"/>
    <trip id="22" type="truck" depart="22.00" from="edge1146" to="edge1429"/>
    <trip id="23" type="truck" depart="23.00" from="edge1184" to="edge151"/>
    <trip id="24" type="truck" depart="24.00" from="edge334" to="edge1670"/>
    <trip id="25" type="truck" depart="25.00" from="edge1688" to="edge1387"/>
    <trip id="26" type="truck" depart="26.00" from="edge1493" to="edge884"/>
    <trip id="27" type="truck" depart="27.00" from="edge357" to="edge279"/>
    <trip id="28" type="truck" depart="28.00" from="edge1311" to="edge50"/>
    <trip id="29" type="truck" depart="29.00" from="edge1298" to="edge1699"/>
    <trip id="30" type="truck" depart="30.00" from="edge980" to="edge335"/>
    <trip id="31" type="truck" depart="31.00" from="edge2032" to="edge42"/>
    <trip id="32" type="truck" depart="32.00" from="edge712" to="edge588"/>
    <trip id="33" type="truck" depart="33.00" from="edge1422" to="edge1057"/>
    <trip id="34" type="truck" depart="34.00" from="edge1583" to="edge1491"/>
    <trip id="35" type="truck" depart="35.00" from="edge139" to="edge896"/>
    <trip id="36" type="truck" depart="36.00" from="edge773" to="edge1576"/>
    <trip id="37" type="truck" depart="37.00" from="edge370" to="edge1728"/>
    <trip id="39" type="truck" depart="39.00" from="edge149" to="edge1453"/>
    <trip id="40" type="truck" depart="40.00" from="edge2040" to="edge1482"/>
    <trip id="41" type="truck" depart="41.00" from="edge239" to="edge814"/>
    <trip id="42" type="truck" depart="42.00" from="edge1740" to="edge1404"/>
    <trip id="43" type="truck" depart="43.00" from="edge995" to="edge1938"/>
    <trip id="44" type="truck" depart="44.00" from="edge1166" to="edge1084"/>
    <trip id="45" type="truck" depart="45.00" from="edge12" to="edge311"/>
    <trip id="46" type="truck" depart="46.00" from="edge618" to="edge1779"/>
    <trip id="47" type="truck" depart="47.00" from="edge1114" to="edge1701"/>
    <trip id="48" type="truck" depart="48.00" from="edge992" to="edge1976"/>
    <trip id="49" type="truck" depart="49.00" from="edge945" to="edge747"/>
    <trip id="50" type="truck" depart="50.00" from="edge1019" to="edge486"/>
    <trip id="51" type="truck" depart="51.00" from="edge418" to="edge199"/>
    <trip id="52" type="truck" depart="52.00" from="edge1493" to="edge337"/>
    <trip id="53" type="truck" depart="53.00" from="edge1202" to="edge1801"/>
    <trip id="54" type="truck" depart="54.00" from="edge1843" to="edge914"/>
    <trip id="55" type="truck" depart="55.00" from="edge772" to="edge1484"/>
    <trip id="56" type="truck" depart="56.00" from="edge1930" to="edge1327"/>
    <trip id="57" type="truck" depart="57.00" from="edge839" to="edge765"/>
    <trip id="58" type="truck" depart="58.00" from="edge1550" to="edge333"/>
    <trip id="59" type="truck" depart="59.00" from="edge284" to="edge1278"/>
    <trip id="60" type="truck" depart="60.00" from="edge565" to="edge1994"/>
    <trip id="61" type="truck" depart="61.00" from="edge594" to="edge1978"/>
    <trip id="62" type="truck" depart="62.00" from="edge10" to="edge1593"/>
    <trip id="63" type="truck" depart="63.00" from="edge1033" to="edge870"/>
    <trip id="64" type="truck" depart="64.00" from="edge778" to="edge692"/>
    <trip id="65" type="truck" depart="65.00" from="edge1567" to="edge1103"/>
    <trip id="66" type="truck" depart="66.00" from="edge776" to="edge902"/>
    <trip id="67" type="truck" depart="67.00" from="edge1156" to="edge1897"/>
    <trip id="68" type="truck" depart="68.00" from="edge1126" to="edge56"/>
    <trip id="69" type="truck" depart="69.00" from="edge571" to="edge1232"/>
    <trip id="70" type="truck" depart="70.00" from="edge1884" to="edge2013"/>
    <trip id="71" type="truck" depart="71.00" from="edge149" to="edge769"/>
    <trip id="72" type="truck" depart="72.00" from="edge1786" to="edge1391"/>
    <trip id="73" type="truck" depart="73.00" from="edge2000" to="edge501"/>
    <trip id="74" type="truck" depart="74.00" from="edge1370" to="edge1570"/>
    <trip id="75" type="truck" depart="75.00" from="edge990" to="edge352"/>
    <trip id="76" type="truck" depart="76.00" from="edge1813" to="edge1953"/>
    <trip id="77" type="truck" depart="77.00" from="edge1220" to="edge1414"/>
    <trip id="79" type="truck" depart="79.00" from="edge1424" to="edge1406"/>
    <trip id="80" type="truck" depart="80.00" from="edge1129" to="edge318"/>
    <trip id="81" type="truck" depart="81.00" from="edge1422" to="edge828"/>
    <trip id="82" type="truck" depart="82.00" from="edge743" to="edge1127"/>
    <trip id="83" type="truck" depart="83.00" from="edge1439" to="edge390"/>
    <trip id="84" type="truck" depart="84.00" from="edge1396" to="edge124"/>
    <trip id="85" type="truck" depart="85.00" from="edge880" to="edge209"/>
    <trip id="86" type="truck" depart="86.00" from="edge1879" to="edge602"/>
    <trip id="87" type="truck" depart="87.00" from="edge647" to="edge135"/>
    <trip id="88" type="truck" depart="88.00" from="edge1177" to="edge1796"/>
    <trip id="89" type="truck" depart="89.00" from="edge1787" to="edge1861"/>
    <trip id="90" type="truck" depart="90.00" from="edge502" to="edge399"/>
    <trip id="91" type="truck" depart="91.00" from="edge969" to="edge1178"/>
    <trip id="92" type="truck" depart="92.00" from="edge1746" to="edge1620"/>
    <trip id="93" type="truck" depart="93.00" from="edge747" to="edge1457"/>
    <trip id="94" type="truck" depart="94.00" from="edge1350" to="edge1827"/>
    <trip id="95" type="truck" depart="95.00" from="edge1784" to="edge1510"/>
    <trip id="96" type="truck" depart="96.00" from="edge1460" to="edge86"/>
    <trip id="97" type="truck" depart="97.00" from="edge1823" to="edge748"/>
    <trip id="98" type="truck" depart="98.00" from="edge2020" to="edge1090"/>
    <trip id="99" type="truck" depart="99.00" from="edge998" to="edge70"/>
    <trip id="100" type="truck" depart="100.00" from="edge941" to="edge866"/>
    <trip id="101" type="truck" depart="101.00" from="edge723" to="edge1303"/>
    <trip id="102" type="truck" depart="102.00" from="edge1903" to="edge1395"/>
    <trip id="103" type="truck" depart="103.00" from="edge1743" to="edge1104"/>
    <trip id="104" type="truck" depart="104.00" from="edge1702" to="edge971"/>
    <trip id="105" type="truck" depart="105.00" from="edge149" to="edge601"/>
    <trip id="106" type="truck" depart="106.00" from="edge1846" to="edge1780"/>
    <trip id="107" type="truck" depart="107.00" from="edge92" to="edge990"/>
    <trip id="108" type="truck" depart="108.00" from="edge2030" to="edge481"/>
    <trip id="109" type="truck" depart="109.00" from="edge1281" to="edge1543"/>
    <trip id="110" type="truck" depart="110.00" from="edge940" to="edge223"/>
    <trip id="111" type="truck" depart="111.00" from="edge2006" to="edge535"/>
    <trip id="112" type="truck" depart="112.00" from="edge1102" to="edge232"/>
    <trip id="113" type="truck" depart="113.00" from="edge1934" to="edge731"/>
    <trip id="114" type="truck" depart="114.00" from="edge1286" to="edge927"/>
    <trip id="115" type="truck" depart="115.00" from="edge1146" to="edge1341"/>
    <trip id="116" type="truck" depart="116.00" from="edge258" to="edge401"/>
    <trip id="117" type="truck" depart="117.00" from="edge1433" to="edge1216"/>
    <trip id="118" type="truck" depart="118.00" from="edge799" to="edge1452"/>
    <trip id="119" type="truck" depart="119.00" from="edge257" to="edge298"/>
    <trip id="120" type="truck" depart="120.00" from="edge1778" to="edge231"/>
    <trip id="121" type="truck" depart="121.00" from="edge1972" to="edge880"/>
    <trip id="122" type="truck" depart="122.00" from="edge1378" to="edge478"/>
    <trip id="123" type="truck" depart="123.00" from="edge144" to="edge1729"/>
    <trip id="124" type="truck" depart="124.00" from="edge40" to="edge155"/>
    <trip id="125" type="truck" depart="125.00" from="edge1584" to="edge542"/>
    <trip id="126" type="truck" depart="126.00" from="edge1131" to="edge1844"/>
    <trip id="127" type="truck" depart="127.00" from="edge996" to="edge992"/>
    <trip id="128" type="truck" depart="128.00" from="edge1133" to="edge1394"/>
    <trip id="129" type="truck" depart="129.00" from="edge149" to="edge878"/>
    <trip id="130" type="truck" depart="130.00" from="edge781" to="edge781"/>
    <trip id="131" type="truck" depart="131.00" from="edge1686" to="edge1288"/>
    <trip id="132" type="truck" depart="132.00" from="edge697" to="edge454"/>
    <trip id="133" type="truck" depart="133.00" from="edge289" to="edge975"/>
    <trip id="134" type="truck" depart="134.00" from="edge369" to="edge1012"/>
    <trip id="135" type="truck" depart="135.00" from="edge667" to="edge1548"/>
    <trip id="136" type="truck" depart="136.00" from="edge385" to="edge889"/>
    <trip id="137" type="truck" depart="137.00" from="edge1244" to="edge1208"/>
    <trip id="138" type="truck" depart="138.00" from="edge1195" to="edge2020"/>
    <trip id="139" type="truck" depart="139.00" from="edge1502" to="edge271"/>
    <trip id="140" type="truck" depart="140.00" from="edge482" to="edge1375"/>
    <trip id="141" type="truck" depart="141.00" from="edge330" to="edge1485"/>
    <trip id="142" type="truck" depart="142.00" from="edge1909" to="edge828"/>
    <trip id="143" type="truck" depart="143.00" from="edge719" to="edge1167"/>
    <trip id="144" type="truck" depart="144.00" from="edge1787" to="edge1507"/>
    <trip id="145" type="truck" depart="145.00" from="edge1005" to="edge579"/>
    <trip id="146" type="truck" depart="146.00" from="edge337" to="edge1481"/>
    <trip id="147" type="truck" depart="147.00" from="edge525" to="edge2018"/>
    <trip id="148" type="truck" depart="148.00" from="edge1794" to="edge1016"/>
    <trip id="149" type="truck" depart="149.00" from="edge1138" to="edge788"/>
    <trip id="150" type="truck" depart="150.00" from="edge823" to="edge2005"/>
    <trip id="151" type="truck" depart="151.00" from="edge699" to="edge23"/>
    <trip id="152" type="truck" depart="152.00" from="edge127" to="edge1230"/>
    <trip id="153" type="truck" depart="153.00" from="edge1568" to="edge816"/>
    <trip id="154" type="truck" depart="154.00" from="edge625" to="edge747"/>
    <trip id="155" type="truck" depart="155.00" from="edge814" to="edge1388"/>
    <trip id="156" type="truck" depart="156.00" from="edge146" to="edge1185"/>
    <trip id="157" type="truck" depart="157.00" from="edge597" to="edge79"/>
    <trip id="158" type="truck" depart="158.00" from="edge1754" to="edge3"/>
    <trip id="159" type="truck" depart="159.00" from="edge1281" to="edge872"/>
    <trip id="160" type="truck" depart="160.00" from="edge752" to="edge955"/>
    <trip id="161" type="truck" depart="161.00" from="edge653" to="edge785"/>
    <trip id="162" type="truck" depart="162.00" from="edge1043" to="edge514"/>
    <trip id="163" type="truck" depart="163.00" from="edge1612" to="edge874"/>
    <trip id="164" type="truck" depart="164.00" from="edge637" to="edge753"/>
    <trip id="165" type="truck" depart="165.00" from="edge653" to="edge1490"/>
    <trip id="166" type="truck" depart="166.00" from="edge61" to="edge1195"/>
    <trip id="167" type="truck" depart="167.00" from="edge766" to="edge743"/>
    <trip id="168" type="truck" depart="168.00" from="edge141" to="edge663"/>
    <trip id="169" type="truck" depart="169.00" from="edge1855" to="edge1559"/>
    <trip id="170" type="truck" depart="170.00" from="edge623" to="edge1419"/>
    <trip id="172" type="truck" depart="172.00" from="edge1605" to="edge754"/>
    <trip id="173" type="truck" depart="173.00" from="edge937" to="edge1511"/>
    <trip id="174" type="truck" depart="174.00" from="edge345" to="edge1735"/>
    <trip id="175" type="truck" depart="175.00" from="edge963" to="edge1989"/>
    <trip id="177" type="truck" depart="177.00" from="edge943" to="edge1327"/>
    <trip id="178" type="truck" depart="178.00" from="edge93" to="edge1488"/>
    <trip id="179" type="truck" depart="179.00" from="edge1198" to="edge1801"/>
    <trip id="180" type="truck" depart="180.00" from="edge501" to="edge1574"/>
    <trip id="181" type="truck" depart="181.00" from="edge279" to="edge1941"/>
    <trip id="182" type="truck" depart="182.00" from="edge1715" to="edge219"/>
    <trip id="183" type="truck" depart="183.00" from="edge1469" to="edge464"/>
    <trip id="184" type="truck" depart="184.00" from="edge1001" to="edge864"/>
    <trip id="185" type="truck" depart="185.00" from="edge20" to="edge483"/>
    <trip id="186" type="truck" depart="186.00" from="edge526" to="edge394"/>
    <trip id="187" type="truck" depart="187.00" from="edge1677" to="edge1125"/>
    <trip id="188" type="truck" depart="188.00" from="edge387" to="edge1603"/>
    <trip id="189" type="truck" depart="189.00" from="edge1579" to="edge721"/>
    <trip id="190" type="truck" depart="190.00" from="edge487" to="edge155"/>
    <trip id="191" type="truck" depart="191.00" from="edge157" to="edge1752"/>
    <trip id="192" type="truck" depart="192.00" from="edge1746" to="edge1541"/>
    <trip id="193" type="truck" depart="193.00" from="edge1231" to="edge1775"/>
    <trip id="194" type="truck" depart="194.00" from="edge890" to="edge405"/>
    <trip id="195" type="truck" depart="195.00" from="edge821" to="edge290"/>
    <trip id="196" type="truck" depart="196.00" from="edge1555" to="edge201"/>
    <trip id="197" type="truck" depart="197.00" from="edge1" to="edge1526"/>
    <trip id="198" type="truck" depart="198.00" from="edge18" to="edge225"/>
    <trip id="199" type="truck" depart="199.00" from="edge37" to="edge1858"/>
    <trip id="200" type="truck" depart="200.00" from="edge1821" to="edge1395"/>
    <trip id="201" type="truck" depart="201.00" from="edge188" to="edge82"/>
    <trip id="202" type="truck" depart="202.00" from="edge625" to="edge131"/>
    <trip id="203" type="truck" depart="203.00" from="edge1155" to="edge1949"/>
    <trip id="204" type="truck" depart="204.00" from="edge329" to="edge1612"/>
    <trip id="205" type="truck" depart="205.00" from="edge669" to="edge540"/>
    <trip id="206" type="truck" depart="206.00" from="edge401" to="edge1413"/>
    <trip id="207" type="truck" depart="207.00" from="edge1367" to="edge1042"/>
    <trip id="208" type="truck" depart="208.00" from="edge1451" to="edge1876"/>
    <trip id="209" type="truck" depart="209.00" from="edge725" to="edge1130"/>
    <trip id="210" type="truck" depart="210.00" from="edge1769" to="edge315"/>
    <trip id="211" type="truck" depart="211.00" from="edge1358" to="edge441"/>
    <trip id="212" type="truck" depart="212.00" from="edge1919" to="edge1449"/>
    <trip id="213" type="truck" depart="213.00" from="edge372" to="edge1009"/>
    <trip id="214" type="truck" depart="214.00" from="edge542" to="edge577"/>
    <trip id="215" type="truck" depart="215.00" from="edge1194" to="edge1785"/>
    <trip id="216" type="truck" depart="216.00" from="edge132" to="edge922"/>
    <trip id="217" type="truck" depart="217.00" from="edge1963" to="edge1090"/>
    <trip id="218" type="truck" depart="218.00" from="edge1459" to="edge722"/>
    <trip id="219" type="truck" depart="219.00" from="edge1849" to="edge634"/>
    <trip id="220" type="truck" depart="220.00" from="edge393" to="edge976"/>
    <trip id="221" type="truck" depart="221.00" from="edge259" to="edge908"/>
    <trip id="222" type="truck" depart="222.00" from="edge80" to="edge285"/>
    <trip id="223" type="truck" depart="223.00" from="edge486" to="edge193"/>
    <trip id="224" type="truck" depart="224.00" from="edge691" to="edge201"/>
    <trip id="225" type="truck" depart="225.00" from="edge811" to="edge527"/>
    <trip id="226" type="truck" depart="226.00" from="edge1883" to="edge1476"/>
    <trip id="227" type="truck" depart="227.00" from="edge1455" to="edge33"/>
    <trip id="228" type="truck" depart="228.00" from="edge571" to="edge1960"/>
    <trip id="229" type="truck" depart="229.00" from="edge317" to="edge1503"/>
    <trip id="230" type="truck" depart="230.00" from="edge1141" to="edge1523"/>
    <trip id="232" type="truck" depart="232.00" from="edge2002" to="edge1250"/>
    <trip id="233" type="truck" depart="233.00" from="edge1427" to="edge436"/>
    <trip id="234" type="truck" depart="234.00" from="edge462" to="edge1115"/>
    <trip id="235" type="truck" depart="235.00" from="edge1756" to="edge2"/>
    <trip id="236" type="truck" depart="236.00" from="edge1771" to="edge1382"/>
    <trip id="237" type="truck" depart="237.00" from="edge178" to="edge827"/>
    <trip id="238" type="truck" depart="238.00" from="edge238" to="edge44"/>
    <trip id="239" type="truck" depart="239.00" from="edge738" to="edge569"/>
    <trip id="240" type="truck" depart="240.00" from="edge1706" to="edge1009"/>
    <trip id="241" type="truck" depart="241.00" from="edge1652" to="edge545"/>
    <trip id="242" type="truck" depart="242.00" from="edge731" to="edge914"/>
    <trip id="243" type="truck" depart="243.00" from="edge1778" to="edge534"/>
    <trip id="244" type="truck" depart="244.00" from="edge2012" to="edge268"/>
    <trip id="245" type="truck" depart="245.00" from="edge1406" to="edge1404"/>
    <trip id="246" type="truck" depart="246.00" from="edge181" to="edge1050"/>
    <trip id="247" type="truck" depart="247.00" from="edge162" to="edge41"/>
    <trip id="248" type="truck" depart="248.00" from="edge1750" to="edge1300"/>
    <trip id="249" type="truck" depart="249.00" from="edge1869" to="edge1230"/>
    <trip id="250" type="truck" depart="250.00" from="edge308" to="edge1047"/>
    <trip id="251" type="truck" depart="251.00" from="edge1730" to="edge2040"/>
    <trip id="252" type="truck" depart="252.00" from="edge1048" to="edge34"/>
    <trip id="253" type="truck" depart="253.00" from="edge1247" to="edge1851"/>
    <trip id="254" type="truck" depart="254.00" from="edge1091" to="edge1698"/>
    <trip id="255" type="truck" depart="255.00" from="edge1391" to="edge1598"/>
    <trip id="256" type="truck" depart="256.00" from="edge562" to="edge1698"/>
    <trip id="257" type="truck" depart="257.00" from="edge544" to="edge692"/>
    <trip id="258" type="truck" depart="258.00" from="edge1465" to="edge1147"/>
    <trip id="259" type="truck" depart="259.00" from="edge1033" to="edge1994"/>
    <trip id="260" type="truck" depart="260.00" from="edge999" to="edge1641"/>
    <trip id="261" type="truck" depart="261.00" from="edge360" to="edge597"/>
    <trip id="262" type="truck" depart="262.00" from="edge364" to="edge546"/>
    <trip id="263" type="truck" depart="263.00" from="edge906" to="edge1367"/>
    <trip id="264" type="truck" depart="264.00" from="edge1035" to="edge1277"/>
    <trip id="265" type="truck" depart="265.00" from="edge123" to="edge391"/>
    <trip id="266" type="truck" depart="266.00" from="edge2045" to="edge1401"/>
    <trip id="267" type="truck" depart="267.00" from="edge45" to="edge571"/>
    <trip id="268" type="truck" depart="268.00" from="edge1305" to="edge275"/>
    <trip id="269" type="truck" depart="269.00" from="edge537" to="edge1206"/>
    <trip id="270" type="truck" depart="270.00" from="edge670" to="edge934"/>
    <trip id="271" type="truck" depart="271.00" from="edge1197" to="edge1045"/>
    <trip id="272" type="truck" depart="272.00" from="edge1576" to="edge405"/>
    <trip id="273" type="truck" depart="273.00" from="edge921" to="edge173"/>
    <trip id="274" type="truck" depart="274.00" from="edge478" to="edge1136"/>
    <trip id="275" type="truck" depart="275.00" from="edge434" to="edge310"/>
    <trip id="276" type="truck" depart="276.00" from="edge1186" to="edge581"/>
    <trip id="277" type="truck" depart="277.00" from="edge726" to="edge262"/>
    <trip id="278" type="truck" depart="278.00" from="edge1220" to="edge969"/>
    <trip id="279" type="truck" depart="279.00" from="edge600" to="edge1637"/>
    <trip id="280" type="truck" depart="280.00" from="edge1797" to="edge1682"/>
    <trip id="281" type="truck" depart="281.00" from="edge194" to="edge1626"/>
    <trip id="282" type="truck" depart="282.00" from="edge725" to="edge674"/>
    <trip id="283" type="truck" depart="283.00" from="edge1192" to="edge927"/>
    <trip id="284" type="truck" depart="284.00" from="edge334" to="edge686"/>
    <trip id="285" type="truck" depart="285.00" from="edge464" to="edge1803"/>
    <trip id="286" type="truck" depart="286.00" from="edge511" to="edge936"/>
    <trip id="288" type="truck" depart="288.00" from="edge20" to="edge1892"/>
    <trip id="289" type="truck" depart="289.00" from="edge1809" to="edge503"/>
    <trip id="290" type="truck" depart="290.00" from="edge1496" to="edge73"/>
    <trip id="291" type="truck" depart="291.00" from="edge691" to="edge1156"/>
    <trip id="292" type="truck" depart="292.00" from="edge782" to="edge1449"/>
    <trip id="293" type="truck" depart="293.00" from="edge1864" to="edge281"/>
    <trip id="294" type="truck" depart="294.00" from="edge1702" to="edge1050"/>
    <trip id="295" type="truck" depart="295.00" from="edge727" to="edge1334"/>
    <trip id="296" type="truck" depart="296.00" from="edge1391" to="edge627"/>
    <trip id="297" type="truck" depart="297.00" from="edge163" to="edge783"/>
    <trip id="298" type="truck" depart="298.00" from="edge453" to="edge1506"/>
    <trip id="299" type="truck" depart="299.00" from="edge1017" to="edge904"/>
    <trip id="300" type="truck" depart="300.00" from="edge1156" to="edge484"/>
    <trip id="301" type="truck" depart="301.00" from="edge1909" to="edge555"/>
    <trip id="302" type="truck" depart="302.00" from="edge434" to="edge345"/>
    <trip id="303" type="truck" depart="303.00" from="edge1912" to="edge618"/>
    <trip id="304" type="truck" depart="304.00" from="edge117" to="edge1408"/>
    <trip id="305" type="truck" depart="305.00" from="edge436" to="edge1560"/>
    <trip id="306" type="truck" depart="306.00" from="edge233" to="edge1872"/>
    <trip id="307" type="truck" depart="307.00" from="edge1987" to="edge1786"/>
    <trip id="308" type="truck" depart="308.00" from="edge533" to="edge1604"/>
    <trip id="310" type="truck" depart="310.00" from="edge1463" to="edge1217"/>
    <trip id="311" type="truck" depart="311.00" from="edge1355" to="edge1215"/>
    <trip id="312" type="truck" depart="312.00" from="edge1996" to="edge562"/>
    <trip id="313" type="truck" depart="313.00" from="edge134" to="edge14"/>
    <trip id="314" type="truck" depart="314.00" from="edge1900" to="edge492"/>
    <trip id="315" type="truck" depart="315.00" from="edge955" to="edge1968"/>
    <trip id="316" type="truck" depart="316.00" from="edge1521" to="edge1181"/>
    <trip id="317" type="truck" depart="317.00" from="edge1358" to="edge1419"/>
    <trip id="318" type="truck" depart="318.00" from="edge1326" to="edge1024"/>
    <trip id="319" type="truck" depart="319.00" from="edge1993" to="edge1502"/>
    <trip id="320" type="truck" depart="320.00" from="edge950" to="edge2020"/>
    <trip id="321" type="truck" depart="321.00" from="edge446" to="edge1228"/>
    <trip id="322" type="truck" depart="322.00" from="edge759" to="edge1904"/>
    <trip id="323" type="truck" depart="323.00" from="edge767" to="edge214"/>
    <trip id="324" type="truck" depart="324.00" from="edge1872" to="edge1812"/>
    <trip id="325" type="truck" depart="325.00" from="edge1338" to="edge1092"/>
    <trip id="326" type="truck" depart="326.00" from="edge891" to="edge1880"/>
    <trip id="327" type="truck" depart="327.00" from="edge676" to="edge1738"/>
    <trip id="328" type="truck" depart="328.00" from="edge1134" to="edge315"/>
    <trip id="329" type="truck" depart="329.00" from="edge1097" to="edge1271"/>
    <trip id="330" type="truck" depart="330.00" from="edge2043" to="edge1556"/>
    <trip id="331" type="truck" depart="331.00" from="edge988" to="edge1213"/>
    <trip id="332" type="truck" depart="332.00" from="edge569" to="edge273"/>
    <trip id="333" type="truck" depart="333.00" from="edge615" to="edge1416"/>
    <trip id="334" type="truck" depart="334.00" from="edge1972" to="edge1830"/>
    <trip id="335" type="truck" depart="335.00" from="edge1822" to="edge746"/>
    <trip id="336" type="truck" depart="336.00" from="edge981" to="edge1559"/>
    <trip id="337" type="truck" depart="337.00" from="edge306" to="edge28"/>
    <trip id="338" type="truck" depart="338.00" from="edge522" to="edge903"/>
    <trip id="339" type="truck" depart="339.00" from="edge1384" to="edge139"/>
    <trip id="340" type="truck" depart="340.00" from="edge38" to="edge1286"/>
    <trip id="341" type="truck" depart="341.00" from="edge1316" to="edge1134"/>
    <trip id="342" type="truck" depart="342.00" from="edge1003" to="edge1830"/>
    <trip id="343" type="truck" depart="343.00" from="edge256" to="edge1533"/>
    <trip id="344" type="truck" depart="344.00" from="edge1427" to="edge460"/>
    <trip id="346" type="truck" depart="346.00" from="edge428" to="edge861"/>
    <trip id="347" type="truck" depart="347.00" from="edge61" to="edge307"/>
    <trip id="348" type="truck" depart="348.00" from="edge381" to="edge879"/>
    <trip id="349" type="truck" depart="349.00" from="edge179" to="edge2003"/>
    <trip id="350" type="truck" depart="350.00" from="edge356" to="edge833"/>
    <trip id="351" type="truck" depart="351.00" from="edge684" to="edge1128"/>
    <trip id="352" type="truck" depart="352.00" from="edge1301" to="edge1563"/>
    <trip id="353" type="truck" depart="353.00" from="edge539" to="edge205"/>
    <trip id="354" type="truck" depart="354.00" from="edge1532" to="edge1223"/>
    <trip id="355" type="truck" depart="355.00" from="edge430" to="edge448"/>
    <trip id="356" type="truck" depart="356.00" from="edge894" to="edge1921"/>
    <trip id="357" type="truck" depart="357.00" from="edge1918" to="edge1144"/>
    <trip id="358" type="truck" depart="358.00" from="edge1071" to="edge1798"/>
    <trip id="359" type="truck" depart="359.00" from="edge1595" to="edge1460"/>
    <trip id="360" type="truck" depart="360.00" from="edge1167" to="edge93"/>
    <trip id="361" type="truck" depart="361.00" from="edge70" to="edge216"/>
    <trip id="362" type="truck" depart="362.00" from="edge908" to="edge999"/>
    <trip id="363" type="truck" depart="363.00" from="edge400" to="edge1495"/>
    <trip id="364" type="truck" depart="364.00" from="edge1072" to="edge550"/>
    <trip id="365" type="truck" depart="365.00" from="edge1875" to="edge356"/>
    <trip id="366" type="truck" depart="366.00" from="edge845" to="edge1333"/>
    <trip id="367" type="truck" depart="367.00" from="edge240" to="edge324"/>
    <trip id="368" type="truck" depart="368.00" from="edge1914" to="edge1164"/>
    <trip id="369" type="truck" depart="369.00" from="edge1643" to="edge1609"/>