<?xml version="1.0" encoding="UTF-8"?>

<!-- generated on 2025-06-03 21:31:27 by Eclipse SUMO netconvert Version 1.21.0
<netconvertConfiguration xmlns:xsi="http://www.w3.org/2001/XMLSchema-instance" xsi:noNamespaceSchemaLocation="http://sumo.dlr.de/xsd/netconvertConfiguration.xsd">

    <input>
        <node-files value="nodes.xml"/>
        <edge-files value="edges.xml"/>
    </input>

    <output>
        <output-file value="network.net.xml"/>
    </output>

</netconvertConfiguration>
-->

<net version="1.20" junctionCornerDetail="5" limitTurnSpeed="5.50" xmlns:xsi="http://www.w3.org/2001/XMLSchema-instance" xsi:noNamespaceSchemaLocation="http://sumo.dlr.de/xsd/net_file.xsd">

    <location netOffset="-389736.03,-5818265.62" convBoundary="0.00,0.00,1758.78,1473.86" origBoundary="13.368759,52.495750,13.406545,52.520210" projParameter="+proj=utm +zone=33 +ellps=WGS84 +datum=WGS84 +units=m +no_defs"/>

    <edge id=":cluster_node487_node641_0" function="internal">
        <lane id=":cluster_node487_node641_0_0" index="0" disallow="tram rail_urban rail rail_electric rail_fast ship container cable_car subway aircraft wheelchair scooter drone" speed="6.55" length="8.84" shape="1564.92,1312.50 1562.65,1312.16 1560.75,1312.68 1559.22,1314.05 1558.06,1316.29"/>
    </edge>
    <edge id=":cluster_node487_node641_1" function="internal">
        <lane id=":cluster_node487_node641_1_0" index="0" disallow="tram rail_urban rail rail_electric rail_fast ship container cable_car subway aircraft wheelchair scooter drone" speed="11.11" length="21.02" shape="1564.92,1312.50 1544.78,1306.47"/>
    </edge>
    <edge id=":cluster_node487_node641_2" function="internal">
        <lane id=":cluster_node487_node641_2_0" index="0" disallow="tram rail_urban rail rail_electric rail_fast ship container cable_car subway aircraft wheelchair scooter drone" speed="8.33" length="6.99" shape="1564.92,1312.50 1560.42,1310.30 1558.87,1309.05"/>
    </edge>
    <edge id=":cluster_node487_node641_3" function="internal">
        <lane id=":cluster_node487_node641_3_0" index="0" disallow="tram rail_urban rail rail_electric rail_fast ship container cable_car subway aircraft wheelchair scooter drone" speed="3.65" length="1.44" shape="1564.92,1312.50 1564.01,1311.37"/>
    </edge>
    <edge id=":cluster_node487_node641_16" function="internal">
        <lane id=":cluster_node487_node641_16_0" index="0" disallow="tram rail_urban rail rail_electric rail_fast ship container cable_car subway aircraft wheelchair scooter drone" speed="8.33" length="11.95" shape="1558.87,1309.05 1556.16,1306.87 1553.23,1303.00 1552.68,1299.43"/>
    </edge>
    <edge id=":cluster_node487_node641_17" function="internal">
        <lane id=":cluster_node487_node641_17_0" index="0" disallow="tram rail_urban rail rail_electric rail_fast ship container cable_car subway aircraft wheelchair scooter drone" speed="3.65" length="3.23" shape="1564.01,1311.37 1563.87,1310.49 1564.49,1309.85 1565.87,1309.44"/>
    </edge>
    <edge id=":cluster_node487_node641_4" function="internal">
        <lane id=":cluster_node487_node641_4_0" index="0" disallow="tram rail_urban rail rail_electric rail_fast ship container cable_car subway aircraft wheelchair scooter drone" speed="8.17" length="14.92" shape="1555.73,1300.40 1555.73,1302.97 1557.42,1305.33 1560.80,1307.49 1565.87,1309.44"/>
    </edge>
    <edge id=":cluster_node487_node641_5" function="internal">
        <lane id=":cluster_node487_node641_5_0" index="0" disallow="tram rail_urban rail rail_electric rail_fast ship container cable_car subway aircraft wheelchair scooter drone" speed="8.33" length="16.26" shape="1555.73,1300.40 1555.70,1304.23 1556.97,1308.37 1558.21,1312.49 1558.06,1316.29"/>
    </edge>
    <edge id=":cluster_node487_node641_6" function="internal">
        <lane id=":cluster_node487_node641_6_0" index="0" disallow="tram rail_urban rail rail_electric rail_fast ship container cable_car subway aircraft wheelchair scooter drone" speed="8.11" length="1.51" shape="1555.73,1300.40 1555.08,1301.76"/>
    </edge>
    <edge id=":cluster_node487_node641_7" function="internal">
        <lane id=":cluster_node487_node641_7_0" index="0" disallow="tram rail_urban rail rail_electric rail_fast ship container cable_car subway aircraft wheelchair scooter drone" speed="3.65" length="1.15" shape="1555.73,1300.40 1554.84,1301.12"/>
    </edge>
    <edge id=":cluster_node487_node641_18" function="internal">
        <lane id=":cluster_node487_node641_18_0" index="0" disallow="tram rail_urban rail rail_electric rail_fast ship container cable_car subway aircraft wheelchair scooter drone" speed="8.11" length="12.64" shape="1555.08,1301.76 1554.05,1303.90 1551.67,1306.08 1548.58,1306.94 1544.78,1306.47"/>
    </edge>
    <edge id=":cluster_node487_node641_19" function="internal">
        <lane id=":cluster_node487_node641_19_0" index="0" disallow="tram rail_urban rail rail_electric rail_fast ship container cable_car subway aircraft wheelchair scooter drone" speed="3.65" length="3.53" shape="1554.84,1301.12 1554.61,1301.30 1553.72,1301.44 1553.08,1300.82 1552.68,1299.43"/>
    </edge>
    <edge id=":cluster_node487_node641_8" function="internal">
        <lane id=":cluster_node487_node641_8_0" index="0" disallow="tram rail_urban rail rail_electric rail_fast ship container cable_car subway aircraft wheelchair scooter drone" speed="6.64" length="9.14" shape="1545.62,1303.38 1548.07,1303.68 1550.06,1303.12 1551.60,1301.70 1552.68,1299.43"/>
    </edge>
    <edge id=":cluster_node487_node641_9" function="internal">
        <lane id=":cluster_node487_node641_9_0" index="0" disallow="tram rail_urban rail rail_electric rail_fast ship container cable_car subway aircraft wheelchair scooter drone" speed="11.11" length="21.14" shape="1545.62,1303.38 1565.87,1309.44"/>
    </edge>
    <edge id=":cluster_node487_node641_10" function="internal">
        <lane id=":cluster_node487_node641_10_0" index="0" disallow="tram rail_urban rail rail_electric rail_fast ship container cable_car subway aircraft wheelchair scooter drone" speed="8.93" length="7.68" shape="1545.62,1303.38 1550.22,1305.45 1552.32,1307.05"/>
    </edge>
    <edge id=":cluster_node487_node641_11" function="internal">
        <lane id=":cluster_node487_node641_11_0" index="0" disallow="tram rail_urban rail rail_electric rail_fast ship container cable_car subway aircraft wheelchair scooter drone" speed="3.65" length="1.44" shape="1545.62,1303.38 1546.57,1304.47"/>
    </edge>
    <edge id=":cluster_node487_node641_20" function="internal">
        <lane id=":cluster_node487_node641_20_0" index="0" disallow="tram rail_urban rail rail_electric rail_fast ship container cable_car subway aircraft wheelchair scooter drone" speed="8.93" length="11.42" shape="1552.32,1307.05 1554.60,1308.80 1557.59,1312.66 1558.06,1316.29"/>
    </edge>
    <edge id=":cluster_node487_node641_21" function="internal">
        <lane id=":cluster_node487_node641_21_0" index="0" disallow="tram rail_urban rail rail_electric rail_fast ship container cable_car subway aircraft wheelchair scooter drone" speed="3.65" length="3.23" shape="1546.57,1304.47 1546.75,1305.35 1546.15,1306.01 1544.78,1306.47"/>
    </edge>
    <edge id=":cluster_node487_node641_12" function="internal">
        <lane id=":cluster_node487_node641_12_0" index="0" disallow="tram rail_urban rail rail_electric rail_fast ship container cable_car subway aircraft wheelchair scooter drone" speed="7.97" length="14.97" shape="1555.05,1315.19 1555.15,1312.62 1553.47,1310.31 1550.01,1308.26 1544.78,1306.47"/>
    </edge>
    <edge id=":cluster_node487_node641_13" function="internal">
        <lane id=":cluster_node487_node641_13_0" index="0" disallow="tram rail_urban rail rail_electric rail_fast ship container cable_car subway aircraft wheelchair scooter drone" speed="8.33" length="16.15" shape="1555.05,1315.19 1555.19,1311.42 1553.94,1307.34 1552.65,1303.24 1552.68,1299.43"/>
    </edge>
    <edge id=":cluster_node487_node641_14" function="internal">
        <lane id=":cluster_node487_node641_14_0" index="0" disallow="tram rail_urban rail rail_electric rail_fast ship container cable_car subway aircraft wheelchair scooter drone" speed="8.04" length="1.48" shape="1555.05,1315.19 1555.74,1313.88"/>
    </edge>
    <edge id=":cluster_node487_node641_15" function="internal">
        <lane id=":cluster_node487_node641_15_0" index="0" disallow="tram rail_urban rail rail_electric rail_fast ship container cable_car subway aircraft wheelchair scooter drone" speed="3.65" length="1.13" shape="1555.05,1315.19 1555.97,1314.52"/>
    </edge>
    <edge id=":cluster_node487_node641_22" function="internal">
        <lane id=":cluster_node487_node641_22_0" index="0" disallow="tram rail_urban rail rail_electric rail_fast ship container cable_car subway aircraft wheelchair scooter drone" speed="8.04" length="12.35" shape="1555.74,1313.88 1556.85,1311.76 1559.25,1309.66 1562.26,1308.88 1565.87,1309.44"/>
    </edge>
    <edge id=":cluster_node487_node641_23" function="internal">
        <lane id=":cluster_node487_node641_23_0" index="0" disallow="tram rail_urban rail rail_electric rail_fast ship container cable_car subway aircraft wheelchair scooter drone" speed="3.65" length="3.54" shape="1555.97,1314.52 1556.22,1314.34 1557.11,1314.24 1557.72,1314.89 1558.06,1316.29"/>
    </edge>
    <edge id=":cluster_node489_node492_0" function="internal">
        <lane id=":cluster_node489_node492_0_0" index="0" disallow="pedestrian tram rail_urban rail rail_electric rail_fast ship container cable_car subway aircraft wheelchair scooter drone" speed="8.06" length="11.78" shape="100.03,831.84 99.15,827.94 97.86,825.10 96.18,823.31 94.10,822.59"/>
    </edge>
    <edge id=":cluster_node489_node492_1" function="internal">
        <lane id=":cluster_node489_node492_1_0" index="0" disallow="pedestrian tram rail_urban rail rail_electric rail_fast ship container cable_car subway aircraft wheelchair scooter drone" speed="13.89" length="16.01" shape="100.03,831.84 97.65,815.99"/>
        <lane id=":cluster_node489_node492_1_1" index="1" disallow="pedestrian tram rail_urban rail rail_electric rail_fast ship container cable_car subway aircraft wheelchair scooter drone" speed="13.89" length="16.01" shape="103.20,831.35 100.81,815.54"/>
    </edge>
    <edge id=":cluster_node489_node492_3" function="internal">
        <lane id=":cluster_node489_node492_3_0" index="0" disallow="pedestrian tram rail_urban rail rail_electric rail_fast ship container cable_car subway aircraft wheelchair scooter drone" speed="8.71" length="8.96" shape="103.20,831.35 103.35,826.43 105.59,823.07"/>
    </edge>
    <edge id=":cluster_node489_node492_4" function="internal">
        <lane id=":cluster_node489_node492_4_0" index="0" disallow="pedestrian tram rail_urban rail rail_electric rail_fast ship container cable_car subway aircraft wheelchair scooter drone" speed="4.72" length="5.97" shape="103.20,831.35 104.41,828.74 105.87,827.70 107.10,828.10"/>
    </edge>
    <edge id=":cluster_node489_node492_18" function="internal">
        <lane id=":cluster_node489_node492_18_0" index="0" disallow="pedestrian tram rail_urban rail rail_electric rail_fast ship container cable_car subway aircraft wheelchair scooter drone" speed="8.71" length="11.06" shape="105.59,823.07 109.90,821.29 116.29,821.08"/>
    </edge>
    <edge id=":cluster_node489_node492_19" function="internal">
        <lane id=":cluster_node489_node492_19_0" index="0" disallow="pedestrian tram rail_urban rail rail_electric rail_fast ship container cable_car subway aircraft wheelchair scooter drone" speed="4.72" length="3.38" shape="107.10,828.10 107.58,828.25 109.52,830.38"/>
    </edge>
    <edge id=":cluster_node489_node492_5" function="internal">
        <lane id=":cluster_node489_node492_5_0" index="0" disallow="pedestrian tram rail_urban rail rail_electric rail_fast ship container cable_car subway aircraft wheelchair scooter drone" speed="5.69" length="7.82" shape="116.04,824.27 114.23,824.50 113.07,825.51 112.55,827.31 112.69,829.89"/>
    </edge>
    <edge id=":cluster_node489_node492_6" function="internal">
        <lane id=":cluster_node489_node492_6_0" index="0" disallow="pedestrian tram rail_urban rail rail_electric rail_fast ship container cable_car subway aircraft wheelchair scooter drone" speed="5.55" length="22.01" shape="116.04,824.27 94.10,822.59"/>
    </edge>
    <edge id=":cluster_node489_node492_7" function="internal">
        <lane id=":cluster_node489_node492_7_0" index="0" disallow="pedestrian tram rail_urban rail rail_electric rail_fast ship container cable_car subway aircraft wheelchair scooter drone" speed="9.83" length="7.05" shape="116.04,824.27 111.28,823.25 109.28,822.39"/>
    </edge>
    <edge id=":cluster_node489_node492_8" function="internal">
        <lane id=":cluster_node489_node492_8_0" index="0" disallow="pedestrian tram rail_urban rail rail_electric rail_fast ship container cable_car subway aircraft wheelchair scooter drone" speed="3.65" length="1.44" shape="116.04,824.27 114.91,823.38"/>
    </edge>
    <edge id=":cluster_node489_node492_20" function="internal">
        <lane id=":cluster_node489_node492_20_0" index="0" disallow="pedestrian tram rail_urban rail rail_electric rail_fast ship container cable_car subway aircraft wheelchair scooter drone" speed="9.83" length="11.21" shape="109.28,822.39 106.45,821.17 102.60,818.45 100.81,815.54"/>
    </edge>
    <edge id=":cluster_node489_node492_21" function="internal">
        <lane id=":cluster_node489_node492_21_0" index="0" disallow="pedestrian tram rail_urban rail rail_electric rail_fast ship container cable_car subway aircraft wheelchair scooter drone" speed="3.65" length="3.23" shape="114.91,823.38 114.57,822.55 115.03,821.79 116.29,821.08"/>
    </edge>
    <edge id=":cluster_node489_node492_9" function="internal">
        <lane id=":cluster_node489_node492_9_0" index="0" disallow="pedestrian tram rail_urban rail rail_electric rail_fast ship container cable_car subway aircraft wheelchair scooter drone" speed="7.87" length="11.37" shape="110.09,812.59 110.92,816.16 112.23,818.77 114.02,820.41 116.29,821.08"/>
    </edge>
    <edge id=":cluster_node489_node492_10" function="internal">
        <lane id=":cluster_node489_node492_10_0" index="0" disallow="pedestrian tram rail_urban rail rail_electric rail_fast ship container cable_car subway aircraft wheelchair scooter drone" speed="13.89" length="17.50" shape="110.09,812.59 112.69,829.89"/>
        <lane id=":cluster_node489_node492_10_1" index="1" disallow="pedestrian tram rail_urban rail rail_electric rail_fast ship container cable_car subway aircraft wheelchair scooter drone" speed="13.89" length="17.50" shape="106.92,813.05 109.52,830.38"/>
    </edge>
    <edge id=":cluster_node489_node492_12" function="internal">
        <lane id=":cluster_node489_node492_12_0" index="0" disallow="pedestrian tram rail_urban rail rail_electric rail_fast ship container cable_car subway aircraft wheelchair scooter drone" speed="8.34" length="8.47" shape="106.92,813.05 106.71,817.68 104.51,820.82"/>
    </edge>
    <edge id=":cluster_node489_node492_13" function="internal">
        <lane id=":cluster_node489_node492_13_0" index="0" disallow="pedestrian tram rail_urban rail rail_electric rail_fast ship container cable_car subway aircraft wheelchair scooter drone" speed="4.78" length="6.43" shape="106.92,813.05 106.33,815.96 105.11,817.35 103.50,817.23"/>
    </edge>
    <edge id=":cluster_node489_node492_22" function="internal">
        <lane id=":cluster_node489_node492_22_0" index="0" disallow="pedestrian tram rail_urban rail rail_electric rail_fast ship container cable_car subway aircraft wheelchair scooter drone" speed="8.34" length="10.72" shape="104.51,820.82 100.30,822.45 94.10,822.59"/>
    </edge>
    <edge id=":cluster_node489_node492_23" function="internal">
        <lane id=":cluster_node489_node492_23_0" index="0" disallow="pedestrian tram rail_urban rail rail_electric rail_fast ship container cable_car subway aircraft wheelchair scooter drone" speed="4.78" length="3.20" shape="103.50,817.23 103.27,817.21 100.81,815.54"/>
    </edge>
    <edge id=":cluster_node489_node492_14" function="internal">
        <lane id=":cluster_node489_node492_14_0" index="0" disallow="pedestrian tram rail_urban rail rail_electric rail_fast ship container cable_car subway aircraft wheelchair scooter drone" speed="4.99" length="5.73" shape="94.37,819.40 96.00,819.31 97.09,818.71 97.64,817.60 97.65,815.99"/>
    </edge>
    <edge id=":cluster_node489_node492_15" function="internal">
        <lane id=":cluster_node489_node492_15_0" index="0" disallow="pedestrian tram rail_urban rail rail_electric rail_fast ship container cable_car subway aircraft wheelchair scooter drone" speed="5.55" length="21.99" shape="94.37,819.40 116.29,821.08"/>
    </edge>
    <edge id=":cluster_node489_node492_16" function="internal">
        <lane id=":cluster_node489_node492_16_0" index="0" disallow="pedestrian tram rail_urban rail rail_electric rail_fast ship container cable_car subway aircraft wheelchair scooter drone" speed="8.34" length="6.22" shape="94.37,819.40 99.25,820.65 100.28,821.21"/>
    </edge>
    <edge id=":cluster_node489_node492_17" function="internal">
        <lane id=":cluster_node489_node492_17_0" index="0" disallow="tram rail_urban rail rail_electric rail_fast ship container cable_car subway aircraft wheelchair scooter drone" speed="2.78" length="1.44" shape="94.37,819.40 95.50,820.30"/>
    </edge>
    <edge id=":cluster_node489_node492_24" function="internal">
        <lane id=":cluster_node489_node492_24_0" index="0" disallow="pedestrian tram rail_urban rail rail_electric rail_fast ship container cable_car subway aircraft wheelchair scooter drone" speed="8.34" length="13.41" shape="100.28,821.21 103.99,823.25 107.71,826.67 109.52,830.38"/>
    </edge>
    <edge id=":cluster_node489_node492_25" function="internal">
        <lane id=":cluster_node489_node492_25_0" index="0" disallow="tram rail_urban rail rail_electric rail_fast ship container cable_car subway aircraft wheelchair scooter drone" speed="2.78" length="3.23" shape="95.50,820.30 95.83,821.13 95.36,821.89 94.10,822.59"/>
    </edge>
    <edge id=":cluster_node554_node637_0" function="internal">
        <lane id=":cluster_node554_node637_0_0" index="0" disallow="pedestrian tram rail_urban rail rail_electric rail_fast ship container cable_car subway aircraft wheelchair scooter drone" speed="13.89" length="19.29" shape="151.06,1256.50 150.75,1250.85 151.19,1246.95 151.71,1243.04 151.67,1237.36"/>
        <lane id=":cluster_node554_node637_0_1" index="1" disallow="pedestrian tram rail_urban rail rail_electric rail_fast ship container cable_car subway aircraft wheelchair scooter drone" speed="13.89" length="19.29" shape="154.28,1256.42 153.96,1250.72 154.39,1246.79 154.91,1242.85 154.87,1237.12"/>
    </edge>
    <edge id=":cluster_node554_node637_2" function="internal">
        <lane id=":cluster_node554_node637_2_0" index="0" disallow="pedestrian tram rail_urban rail rail_electric rail_fast ship container cable_car subway aircraft wheelchair scooter drone" speed="8.74" length="5.23" shape="157.50,1256.34 157.55,1251.12"/>
    </edge>
    <edge id=":cluster_node554_node637_3" function="internal">
        <lane id=":cluster_node554_node637_3_0" index="0" disallow="pedestrian tram rail_urban rail rail_electric rail_fast ship container cable_car subway aircraft wheelchair scooter drone" speed="3.57" length="0.95" shape="157.50,1256.34 158.00,1255.54"/>
    </edge>
    <edge id=":cluster_node554_node637_11" function="internal">
        <lane id=":cluster_node554_node637_11_0" index="0" disallow="pedestrian tram rail_urban rail rail_electric rail_fast ship container cable_car subway aircraft wheelchair scooter drone" speed="8.74" length="13.14" shape="157.55,1251.12 159.21,1247.33 162.49,1244.99 167.39,1244.09"/>
    </edge>
    <edge id=":cluster_node554_node637_12" function="internal">
        <lane id=":cluster_node554_node637_12_0" index="0" disallow="pedestrian tram rail_urban rail rail_electric rail_fast ship container cable_car subway aircraft wheelchair scooter drone" speed="3.57" length="3.26" shape="158.00,1255.54 158.19,1255.24 158.90,1254.86 159.63,1255.21 160.38,1256.27"/>
    </edge>
    <edge id=":cluster_node554_node637_4" function="internal">
        <lane id=":cluster_node554_node637_4_0" index="0" disallow="pedestrian tram rail_urban rail rail_electric rail_fast ship container cable_car subway aircraft wheelchair scooter drone" speed="6.14" length="7.90" shape="167.59,1250.48 165.77,1250.89 164.50,1251.98 163.77,1253.74 163.58,1256.19"/>
    </edge>
    <edge id=":cluster_node554_node637_5" function="internal">
        <lane id=":cluster_node554_node637_5_0" index="0" disallow="pedestrian tram rail_urban rail rail_electric rail_fast ship container cable_car subway aircraft wheelchair scooter drone" speed="9.16" length="18.30" shape="167.49,1247.29 162.26,1246.79 158.42,1244.93 155.95,1241.71 154.87,1237.12"/>
    </edge>
    <edge id=":cluster_node554_node637_6" function="internal">
        <lane id=":cluster_node554_node637_6_0" index="0" disallow="pedestrian tram rail_urban rail rail_electric rail_fast ship container cable_car subway aircraft wheelchair scooter drone" speed="3.65" length="2.34" shape="167.49,1247.29 166.27,1246.52 165.84,1245.74"/>
    </edge>
    <edge id=":cluster_node554_node637_13" function="internal">
        <lane id=":cluster_node554_node637_13_0" index="0" disallow="pedestrian tram rail_urban rail rail_electric rail_fast ship container cable_car subway aircraft wheelchair scooter drone" speed="3.65" length="2.34" shape="165.84,1245.74 166.22,1244.93 167.39,1244.09"/>
    </edge>
    <edge id=":cluster_node554_node637_7" function="internal">
        <lane id=":cluster_node554_node637_7_0" index="0" disallow="pedestrian tram rail_urban rail rail_electric rail_fast ship container cable_car subway aircraft wheelchair scooter drone" speed="5.83" length="6.83" shape="162.65,1237.01 163.05,1238.76 163.96,1239.99 165.37,1240.70 167.29,1240.89"/>
    </edge>
    <edge id=":cluster_node554_node637_8" function="internal">
        <lane id=":cluster_node554_node637_8_0" index="0" disallow="pedestrian tram rail_urban rail rail_electric rail_fast ship container cable_car subway aircraft wheelchair scooter drone" speed="13.89" length="19.12" shape="162.65,1237.01 163.58,1256.19"/>
        <lane id=":cluster_node554_node637_8_1" index="1" disallow="pedestrian tram rail_urban rail rail_electric rail_fast ship container cable_car subway aircraft wheelchair scooter drone" speed="13.89" length="19.12" shape="159.46,1237.25 160.38,1256.27"/>
    </edge>
    <edge id=":cluster_node554_node637_10" function="internal">
        <lane id=":cluster_node554_node637_10_0" index="0" disallow="pedestrian tram rail_urban rail rail_electric rail_fast ship container cable_car subway aircraft wheelchair scooter drone" speed="4.15" length="3.36" shape="159.46,1237.25 158.27,1238.94 157.10,1239.48"/>
    </edge>
    <edge id=":cluster_node554_node637_14" function="internal">
        <lane id=":cluster_node554_node637_14_0" index="0" disallow="pedestrian tram rail_urban rail rail_electric rail_fast ship container cable_car subway aircraft wheelchair scooter drone" speed="4.15" length="3.36" shape="157.10,1239.48 155.97,1238.87 154.87,1237.12"/>
    </edge>
    <edge id=":cluster_node605_node626_node630_node631_0" function="internal">
        <lane id=":cluster_node605_node626_node630_node631_0_0" index="0" disallow="pedestrian tram rail_urban rail rail_electric rail_fast ship container cable_car subway aircraft wheelchair scooter drone" speed="6.33" length="7.84" shape="109.06,696.05 106.51,696.36 104.65,697.09 103.49,698.24 103.02,699.82"/>
    </edge>
    <edge id=":cluster_node605_node626_node630_node631_1" function="internal">
        <lane id=":cluster_node605_node626_node630_node631_1_0" index="0" disallow="pedestrian tram rail_urban rail rail_electric rail_fast ship container cable_car subway aircraft wheelchair scooter drone" speed="8.33" length="32.05" shape="109.65,692.82 77.96,693.96"/>
        <lane id=":cluster_node605_node626_node630_node631_1_1" index="1" disallow="pedestrian tram rail_urban rail rail_electric rail_fast ship container cable_car subway aircraft wheelchair scooter drone" speed="8.33" length="32.05" shape="110.24,689.60 77.87,690.76"/>
    </edge>
    <edge id=":cluster_node605_node626_node630_node631_3" function="internal">
        <lane id=":cluster_node605_node626_node630_node631_3_0" index="0" disallow="pedestrian tram rail_urban rail rail_electric rail_fast ship container cable_car subway aircraft wheelchair scooter drone" speed="11.11" length="17.18" shape="110.83,686.38 103.87,684.30 97.28,678.76 96.55,677.67"/>
    </edge>
    <edge id=":cluster_node605_node626_node630_node631_4" function="internal">
        <lane id=":cluster_node605_node626_node630_node631_4_0" index="0" disallow="pedestrian tram rail_urban rail rail_electric rail_fast ship container cable_car subway aircraft wheelchair scooter drone" speed="5.20" length="7.60" shape="110.83,686.38 108.39,684.02 107.80,682.00 109.07,680.31"/>
    </edge>
    <edge id=":cluster_node605_node626_node630_node631_20" function="internal">
        <lane id=":cluster_node605_node626_node630_node631_20_0" index="0" disallow="pedestrian tram rail_urban rail rail_electric rail_fast ship container cable_car subway aircraft wheelchair scooter drone" speed="11.11" length="14.84" shape="96.55,677.67 92.45,671.50 90.80,664.26"/>
    </edge>
    <edge id=":cluster_node605_node626_node630_node631_21" function="internal">
        <lane id=":cluster_node605_node626_node630_node631_21_0" index="0" disallow="pedestrian tram rail_urban rail rail_electric rail_fast ship container cable_car subway aircraft wheelchair scooter drone" speed="5.20" length="3.39" shape="109.07,680.31 112.18,678.97"/>
    </edge>
    <edge id=":cluster_node605_node626_node630_node631_5" function="internal">
        <lane id=":cluster_node605_node626_node630_node631_5_0" index="0" disallow="pedestrian tram rail_urban rail rail_electric rail_fast ship container cable_car subway aircraft wheelchair scooter drone" speed="7.73" length="12.09" shape="106.82,666.73 107.00,670.29 108.04,672.99 109.97,674.83 112.76,675.82"/>
    </edge>
    <edge id=":cluster_node605_node626_node630_node631_6" function="internal">
        <lane id=":cluster_node605_node626_node630_node631_6_0" index="0" disallow="pedestrian tram rail_urban rail rail_electric rail_fast ship container cable_car subway aircraft wheelchair scooter drone" speed="13.89" length="33.30" shape="106.82,666.73 103.02,699.82"/>
        <lane id=":cluster_node605_node626_node630_node631_6_1" index="1" disallow="pedestrian tram rail_urban rail rail_electric rail_fast ship container cable_car subway aircraft wheelchair scooter drone" speed="13.89" length="33.30" shape="103.63,666.53 99.83,699.60"/>
    </edge>
    <edge id=":cluster_node605_node626_node630_node631_8" function="internal">
        <lane id=":cluster_node605_node626_node630_node631_8_0" index="0" disallow="pedestrian tram rail_urban rail rail_electric rail_fast ship container cable_car subway aircraft wheelchair scooter drone" speed="11.11" length="17.89" shape="100.44,666.32 97.85,673.84 92.09,681.76 91.98,681.85"/>
    </edge>
    <edge id=":cluster_node605_node626_node630_node631_9" function="internal">
        <lane id=":cluster_node605_node626_node630_node631_9_0" index="0" disallow="pedestrian tram rail_urban rail rail_electric rail_fast ship container cable_car subway aircraft wheelchair scooter drone" speed="5.65" length="10.55" shape="100.44,666.32 97.25,669.42 94.59,670.11 92.44,668.39 92.21,667.82"/>
    </edge>
    <edge id=":cluster_node605_node626_node630_node631_22" function="internal">
        <lane id=":cluster_node605_node626_node630_node631_22_0" index="0" disallow="pedestrian tram rail_urban rail rail_electric rail_fast ship container cable_car subway aircraft wheelchair scooter drone" speed="11.11" length="16.94" shape="91.98,681.85 84.87,688.06 77.87,690.76"/>
    </edge>
    <edge id=":cluster_node605_node626_node630_node631_23" function="internal">
        <lane id=":cluster_node605_node626_node630_node631_23_0" index="0" disallow="pedestrian tram rail_urban rail rail_electric rail_fast ship container cable_car subway aircraft wheelchair scooter drone" speed="5.65" length="3.83" shape="92.21,667.82 90.80,664.26"/>
    </edge>
    <edge id=":cluster_node605_node626_node630_node631_10" function="internal">
        <lane id=":cluster_node605_node626_node630_node631_10_0" index="0" disallow="pedestrian tram rail_urban rail rail_electric rail_fast ship container cable_car subway aircraft wheelchair scooter drone" speed="6.75" length="10.70" shape="78.13,666.08 82.19,666.60 85.12,666.44 86.93,665.59 87.61,664.06"/>
    </edge>
    <edge id=":cluster_node605_node626_node630_node631_11" function="internal">
        <lane id=":cluster_node605_node626_node630_node631_11_0" index="0" disallow="pedestrian tram rail_urban rail rail_electric rail_fast ship container cable_car subway aircraft wheelchair scooter drone" speed="8.33" length="35.29" shape="77.88,669.29 112.76,675.82"/>
        <lane id=":cluster_node605_node626_node630_node631_11_1" index="1" disallow="pedestrian tram rail_urban rail rail_electric rail_fast ship container cable_car subway aircraft wheelchair scooter drone" speed="8.33" length="35.29" shape="77.69,672.51 112.18,678.97"/>
    </edge>